LAMMPS (21 Nov 2023)
###variable outfile string L15.17
###variable L equal 15.17

units lj

newton off
atom_style      sphere
boundary        p p p
comm_modify     mode single vel yes

region      boxid block 0.0     $L      0.0       $L      0.0       $L
region      boxid block 0.0     6.563429036687327      0.0       $L      0.0       $L
region      boxid block 0.0     6.563429036687327      0.0       6.563429036687327      0.0       $L
region      boxid block 0.0     6.563429036687327      0.0       6.563429036687327      0.0       6.563429036687327
#create_box  1 boxid
include create_box.in
create_box 1 boxid
Created orthogonal box = (0 0 0) to (6.563429 6.563429 6.563429)

######
include create_np.in
create_atoms 1 random 108 5435 boxid
Created 108 atoms
velocity    all create 1.0 87287 dist gaussian

#####
include particles.in
set type 1 diameter 1.0
Setting atom values ...
  108 settings made for diameter
set type 1 mass 26.0
Setting atom values ...
  108 settings made for mass

###
fix 1 all langevin 1.0 1.0 0.1 12345
fix 2 all nve/sphere

###
pair_style lj/cut 1.
include pots_lj_lan.in
pair_coeff 1 1 10.0 1.0 1.122462048309373
pair_modify shift yes

minimize          1.0e-4 1.0e-6 1000 1000
Generated 0 of 0 mixed pair_coeff terms from geometric mixing rule
Step          Temp          E_pair         E_mol          TotEng         Press
0   49.656342      14423759       0              14423833       22041017
Loop time of 0.00123186 on 1 procs for 29 steps with 108 atoms

Minimization stats:
  Stopping criterion = quadratic factors are zero
  Energy initial, next-to-last, final =
  Force two-norm initial, final = 9.0003447e+10 1.227262e-06
  Force max component initial, final = 6.0576951e+10 5.6965079e-07
  Final line search alpha, max atom move = 1 5.6965079e-07
  Iterations, force evaluations = 29 94

thermo_style custom step temp ke pe etotal
thermo 500
timestep 0.001
dump    id all custom 5000 out_lan_1708795865.lammpstrj id type radius mass x y z
run 100000
Generated 0 of 0 mixed pair_coeff terms from geometric mixing rule
Step          Temp          KinEng         PotEng         TotEng
29   49.656342      73.794842      8.2238743e-18  73.794842
Averages over the last 101 of 202 rows, steps 50500 to 100029:
Temp KinEng PotEng TotEng
0.995755 1.4798 0.10212 1.58192
Loop time of 0.861524 on 1 procs for 100000 steps with 108 atoms

write_data data.1708795865 nocoeff nofix
System init for write_data ...
Generated 0 of 0 mixed pair_coeff terms from geometric mixing rule
