LAMMPS (21 Nov 2023)
###variable outfile string L15.17
###variable L equal 15.17

units lj

newton off
atom_style      sphere
boundary        p p p
comm_modify     mode single vel yes

region      boxid block 0.0     $L      0.0       $L      0.0       $L
region      boxid block 0.0     6.563429036687327      0.0       $L      0.0       $L
region      boxid block 0.0     6.563429036687327      0.0       6.563429036687327      0.0       $L
region      boxid block 0.0     6.563429036687327      0.0       6.563429036687327      0.0       6.563429036687327
#create_box  1 boxid
include create_box.in
create_box 1 boxid
Created orthogonal box = (0 0 0) to (6.563429 6.563429 6.563429)

######
include create_np.in
create_atoms 1 random 108 1429 boxid
Created 108 atoms
velocity    all create 1.0 87287 dist gaussian

#####
include particles.in
set type 1 diameter 1.0
Setting atom values ...
  108 settings made for diameter
set type 1 mass 26.0
Setting atom values ...
  108 settings made for mass

###
fix 1 all langevin 1.0 1.0 0.1 12345
fix 2 all nve/sphere

###
pair_style lj/cut 1.
include pots_lj_lan.in
pair_coeff 1 1 10.0 1.0 1.122462048309373
pair_modify shift yes

minimize          1.0e-4 1.0e-6 1000 1000
Generated 0 of 0 mixed pair_coeff terms from geometric mixing rule
Step          Temp          E_pair         E_mol          TotEng         Press
0   49.656342      9223670.9      0              9223744.7      14096279
Loop time of 0.00104311 on 1 procs for 29 steps with 108 atoms

Minimization stats:
  Stopping criterion = quadratic factors are zero
  Energy initial, next-to-last, final =
  Force two-norm initial, final = 4.6623174e+10 0.3627595
  Force max component initial, final = 2.9311499e+10 0.18719429
  Final line search alpha, max atom move = 0.016312688 0.0030536421
  Iterations, force evaluations = 29 88

thermo_style custom step temp ke pe etotal
thermo 500
timestep 0.001
dump    id all custom 5000 out_lan_1708803791.lammpstrj id type radius mass x y z
run 100000
Generated 0 of 0 mixed pair_coeff terms from geometric mixing rule
Step          Temp          KinEng         PotEng         TotEng
29   49.656342      73.794842      5.6227679e-07  73.794843
Averages over the last 101 of 202 rows, steps 50500 to 100029:
Temp KinEng PotEng TotEng
0.994031 1.47724 0.0984711 1.57571
Loop time of 0.809192 on 1 procs for 100000 steps with 108 atoms

write_data data.1708803791 nocoeff nofix
System init for write_data ...
Generated 0 of 0 mixed pair_coeff terms from geometric mixing rule
