LAMMPS (3 Mar 2020)
###variable outfile string L15.17
###variable L equal 15.17

units lj

newton off
atom_style      sphere
boundary        p p p
comm_modify     mode single vel yes

region      boxid block 0.0     $L      0.0       $L      0.0       $L
region      boxid block 0.0     9.56      0.0       $L      0.0       $L
region      boxid block 0.0     9.56      0.0       9.56      0.0       $L
region      boxid block 0.0     9.56      0.0       9.56      0.0       9.56
#create_box  1 boxid
include create_box.in
create_box 1 boxid
Created orthogonal box = (0 0 0) to (9.56 9.56 9.56)

######
include create_np.in
create_atoms 1 random 500 8897 boxid
Created 500 atoms
velocity    all create 1.0 87287 dist gaussian

#####
include particles.in
set type 1 diameter 1.0
  500 settings made for diameter
set type 1 mass 26.0
  500 settings made for mass

###
fix 1 all langevin 1.0 1.0 0.1 12345
fix 2 all nve/sphere

###
pair_style lj/cut 1.
include pots_lj_lan.in
pair_coeff 1 1 10.0 1.0 1.122462048309373
pair_modify shift yes

minimize          1.0e-4 1.0e-6 1000 1000
  update every 1 steps, delay 0 steps, check yes
Step Temp E_pair E_mol TotEng Press
0    49.656342 1.4939399e+09            0  1.49394e+09 3.4197289e+09
Loop time of 0.02963 on 1 procs for 64 steps with 500 atoms

Minimization stats:
  Stopping criterion = linesearch alpha is zero
  Energy initial, next-to-last, final =
  Force two-norm initial, final = 8.94751e+13 0.0108158
  Force max component initial, final = 4.08258e+13 0.0061678
  Final line search alpha, max atom move = 0.0625 0.000385488
  Iterations, force evaluations = 64 253

thermo_style custom step temp ke pe etotal
thermo 500
timestep 0.001
dump    id all custom 5000 out_lan_1675782587.lammpstrj id type radius mass x y z
run 100000
Step Temp KinEng PotEng TotEng
64    49.656342    74.335544 1.0233539e-10    74.335544
Averages over the last 101 of 202 rows, steps 50500 to 100064:
Temp KinEng PotEng TotEng
1.00236 1.50054 0.270862 1.7714
Loop time of 5.68579 on 1 procs for 100000 steps with 500 atoms

write_data data.1675782587 nocoeff nofix
