LAMMPS (21 Nov 2023)
###variable outfile string L15.17
###variable L equal 15.17

units lj

newton off
atom_style      sphere
boundary        p p p
comm_modify     mode single vel yes

region      boxid block 0.0     $L      0.0       $L      0.0       $L
region      boxid block 0.0     4.550827520987483      0.0       $L      0.0       $L
region      boxid block 0.0     4.550827520987483      0.0       4.550827520987483      0.0       $L
region      boxid block 0.0     4.550827520987483      0.0       4.550827520987483      0.0       4.550827520987483
#create_box  1 boxid
include create_box.in
create_box 1 boxid
Created orthogonal box = (0 0 0) to (4.5508275 4.5508275 4.5508275)

######
include create_np.in
create_atoms 1 random 72 1156 boxid
Created 72 atoms
velocity    all create 1.0 87287 dist gaussian

#####
include particles.in
set type 1 diameter 1.0
Setting atom values ...
  72 settings made for diameter
set type 1 mass 26.0
Setting atom values ...
  72 settings made for mass

###
fix 1 all langevin 1.0 1.0 0.1 12345
fix 2 all nve/sphere

###
pair_style lj/cut 1.
include pots_lj_lan.in
pair_coeff 1 1 10.0 1.0 1.122462048309373
pair_modify shift yes

minimize          1.0e-4 1.0e-6 1000 1000
Generated 0 of 0 mixed pair_coeff terms from geometric mixing rule
Step          Temp          E_pair         E_mol          TotEng         Press
0   49.656342      2.2724932e+13  0              2.2724932e+13  6.9442282e+13
Loop time of 0.00392279 on 1 procs for 79 steps with 72 atoms

Minimization stats:
  Stopping criterion = energy tolerance
  Energy initial, next-to-last, final =
  Force two-norm initial, final = 3.7819656e+17 7.5931919
  Force max component initial, final = 1.7657807e+17 1.7385104
  Final line search alpha, max atom move = 0.0017971988 0.0031244488
  Iterations, force evaluations = 79 350

thermo_style custom step temp ke pe etotal
thermo 500
timestep 0.001
dump    id all custom 5000 out_lan_1709054645.lammpstrj id type radius mass x y z
run 100000
Generated 0 of 0 mixed pair_coeff terms from geometric mixing rule
Step          Temp          KinEng         PotEng         TotEng
79   49.656342      73.450006      0.0009303805   73.450937
Averages over the last 101 of 202 rows, steps 50500 to 100079:
Temp KinEng PotEng TotEng
0.994248 1.47066 0.713016 2.18367
Loop time of 0.7074 on 1 procs for 100000 steps with 72 atoms

write_data data.1709054645 nocoeff nofix
System init for write_data ...
Generated 0 of 0 mixed pair_coeff terms from geometric mixing rule
