LAMMPS (21 Nov 2023)
###variable outfile string L15.17
###variable L equal 15.17

units lj

newton off
atom_style      sphere
boundary        p p p
comm_modify     mode single vel yes

region      boxid block 0.0     $L      0.0       $L      0.0       $L
region      boxid block 0.0     4.3229      0.0       $L      0.0       $L
region      boxid block 0.0     4.3229      0.0       4.3229      0.0       $L
region      boxid block 0.0     4.3229      0.0       4.3229      0.0       4.3229
#create_box  1 boxid
include create_box.in
create_box 1 boxid
Created orthogonal box = (0 0 0) to (4.3229 4.3229 4.3229)

######
include create_np.in
create_atoms 1 random 54 5843 boxid
Created 54 atoms
velocity    all create 1.0 87287 dist gaussian

#####
include particles.in
set type 1 diameter 1.0
Setting atom values ...
  54 settings made for diameter
set type 1 mass 26.0
Setting atom values ...
  54 settings made for mass

###
fix 1 all langevin 1.0 1.0 0.1 12345
fix 2 all nve/sphere

###
pair_style lj/cut 1.
include pots_lj_lan.in
pair_coeff 1 1 10.0 1.0 1.122462048309373
pair_modify shift yes

minimize          1.0e-4 1.0e-6 1000 1000
Generated 0 of 0 mixed pair_coeff terms from geometric mixing rule
Step          Temp          E_pair         E_mol          TotEng         Press
0   49.656342      7.881682e+13   0              7.881682e+13   2.1074007e+14
Loop time of 0.00290999 on 1 procs for 83 steps with 54 atoms

Minimization stats:
  Stopping criterion = quadratic factors are zero
  Energy initial, next-to-last, final =
  Force two-norm initial, final = 1.0656672e+18 8.4605299e-06
  Force max component initial, final = 6.1908526e+17 5.3374062e-06
  Final line search alpha, max atom move = 1 5.3374062e-06
  Iterations, force evaluations = 83 486

thermo_style custom step temp ke pe etotal
thermo 500
timestep 0.001
dump    id all custom 5000 out_lan_1708716654.lammpstrj id type radius mass x y z
run 100000
Generated 0 of 0 mixed pair_coeff terms from geometric mixing rule
Step          Temp          KinEng         PotEng         TotEng
83   49.656342      73.105171      5.9211895e-16  73.105171
Averages over the last 101 of 202 rows, steps 50500 to 100083:
Temp KinEng PotEng TotEng
1.02165 1.5041 0.391995 1.8961
Loop time of 0.580415 on 1 procs for 100000 steps with 54 atoms

write_data data.1708716654 nocoeff nofix
System init for write_data ...
Generated 0 of 0 mixed pair_coeff terms from geometric mixing rule
