LAMMPS (21 Nov 2023)
###variable outfile string L15.17
###variable L equal 15.17

units lj

newton off
atom_style      sphere
boundary        p p p
comm_modify     mode single vel yes

region      boxid block 0.0     $L      0.0       $L      0.0       $L
region      boxid block 0.0     8.269402402813594      0.0       $L      0.0       $L
region      boxid block 0.0     8.269402402813594      0.0       8.269402402813594      0.0       $L
region      boxid block 0.0     8.269402402813594      0.0       8.269402402813594      0.0       8.269402402813594
#create_box  1 boxid
include create_box.in
create_box 1 boxid
Created orthogonal box = (0 0 0) to (8.2694024 8.2694024 8.2694024)

######
include create_np.in
create_atoms 1 random 54 7471 boxid
Created 54 atoms
velocity    all create 1.0 87287 dist gaussian

#####
include particles.in
set type 1 diameter 1.0
Setting atom values ...
  54 settings made for diameter
set type 1 mass 26.0
Setting atom values ...
  54 settings made for mass

###
fix 1 all langevin 1.0 1.0 0.1 12345
fix 2 all nve/sphere

###
pair_style lj/cut 1.
include pots_lj_lan.in
pair_coeff 1 1 10.0 1.0 1.122462048309373
pair_modify shift yes

minimize          1.0e-4 1.0e-6 1000 1000
Generated 0 of 0 mixed pair_coeff terms from geometric mixing rule
Step          Temp          E_pair         E_mol          TotEng         Press
0   49.656342      9048.4831      0              9121.5883      3492.7843
Loop time of 0.000158076 on 1 procs for 10 steps with 54 atoms

Minimization stats:
  Stopping criterion = quadratic factors are zero
  Energy initial, next-to-last, final =
  Force two-norm initial, final = 11281954 0.21850042
  Force max component initial, final = 6413855.8 0.11267677
  Final line search alpha, max atom move = 0.85769148 0.096641904
  Iterations, force evaluations = 10 25

thermo_style custom step temp ke pe etotal
thermo 500
timestep 0.001
dump    id all custom 5000 out_lan_1708799253.lammpstrj id type radius mass x y z
run 100000
Generated 0 of 0 mixed pair_coeff terms from geometric mixing rule
Step          Temp          KinEng         PotEng         TotEng
10   49.656342      73.105171      3.8547895e-07  73.105171
Averages over the last 101 of 202 rows, steps 50500 to 100010:
Temp KinEng PotEng TotEng
1.02082 1.50287 0.0283743 1.53125
Loop time of 0.363948 on 1 procs for 100000 steps with 54 atoms

write_data data.1708799253 nocoeff nofix
System init for write_data ...
Generated 0 of 0 mixed pair_coeff terms from geometric mixing rule
