LAMMPS (21 Nov 2023)
###variable outfile string L15.17
###variable L equal 15.17

units lj

newton off
atom_style      sphere
boundary        p p p
comm_modify     mode single vel yes

region      boxid block 0.0     $L      0.0       $L      0.0       $L
region      boxid block 0.0     7.223988394141365      0.0       $L      0.0       $L
region      boxid block 0.0     7.223988394141365      0.0       7.223988394141365      0.0       $L
region      boxid block 0.0     7.223988394141365      0.0       7.223988394141365      0.0       7.223988394141365
#create_box  1 boxid
include create_box.in
create_box 1 boxid
Created orthogonal box = (0 0 0) to (7.2239884 7.2239884 7.2239884)

######
include create_np.in
create_atoms 1 random 72 4740 boxid
Created 72 atoms
velocity    all create 1.0 87287 dist gaussian

#####
include particles.in
set type 1 diameter 1.0
Setting atom values ...
  72 settings made for diameter
set type 1 mass 26.0
Setting atom values ...
  72 settings made for mass

###
fix 1 all langevin 1.0 1.0 0.1 12345
fix 2 all nve/sphere

###
pair_style lj/cut 1.
include pots_lj_lan.in
pair_coeff 1 1 10.0 1.0 1.122462048309373
pair_modify shift yes

minimize          1.0e-4 1.0e-6 1000 1000
Generated 0 of 0 mixed pair_coeff terms from geometric mixing rule
Step          Temp          E_pair         E_mol          TotEng         Press
0   49.656342      1213134        0              1213207.4      927239.92
Loop time of 0.000356976 on 1 procs for 18 steps with 72 atoms

Minimization stats:
  Stopping criterion = quadratic factors are zero
  Energy initial, next-to-last, final =
  Force two-norm initial, final = 4.6262947e+09 7.9509044
  Force max component initial, final = 2.9656768e+09 3.0194205
  Final line search alpha, max atom move = 0.0082797344 0.025
  Iterations, force evaluations = 18 48

thermo_style custom step temp ke pe etotal
thermo 500
timestep 0.001
dump    id all custom 5000 out_lan_1709053286.lammpstrj id type radius mass x y z
run 100000
Generated 0 of 0 mixed pair_coeff terms from geometric mixing rule
Step          Temp          KinEng         PotEng         TotEng
18   49.656342      73.450006      0.00037202143  73.450378
Averages over the last 101 of 202 rows, steps 50500 to 100018:
Temp KinEng PotEng TotEng
1.02641 1.51824 0.0437098 1.56195
Loop time of 0.508524 on 1 procs for 100000 steps with 72 atoms

write_data data.1709053286 nocoeff nofix
System init for write_data ...
Generated 0 of 0 mixed pair_coeff terms from geometric mixing rule
