LAMMPS (21 Nov 2023)
###variable outfile string L15.17
###variable L equal 15.17

units lj

newton off
atom_style      sphere
boundary        p p p
comm_modify     mode single vel yes

region      boxid block 0.0     $L      0.0       $L      0.0       $L
region      boxid block 0.0     9.101655041974967      0.0       $L      0.0       $L
region      boxid block 0.0     9.101655041974967      0.0       9.101655041974967      0.0       $L
region      boxid block 0.0     9.101655041974967      0.0       9.101655041974967      0.0       9.101655041974967
#create_box  1 boxid
include create_box.in
create_box 1 boxid
Created orthogonal box = (0 0 0) to (9.101655 9.101655 9.101655)

######
include create_np.in
create_atoms 1 random 72 4421 boxid
Created 72 atoms
velocity    all create 1.0 87287 dist gaussian

#####
include particles.in
set type 1 diameter 1.0
Setting atom values ...
  72 settings made for diameter
set type 1 mass 26.0
Setting atom values ...
  72 settings made for mass

###
fix 1 all langevin 1.0 1.0 0.1 12345
fix 2 all nve/sphere

###
pair_style lj/cut 1.
include pots_lj_lan.in
pair_coeff 1 1 10.0 1.0 1.122462048309373
pair_modify shift yes

minimize          1.0e-4 1.0e-6 1000 1000
Generated 0 of 0 mixed pair_coeff terms from geometric mixing rule
Step          Temp          E_pair         E_mol          TotEng         Press
0   49.656342      1125851.6      0              1125925        430213.29
Loop time of 0.000334514 on 1 procs for 16 steps with 72 atoms

Minimization stats:
  Stopping criterion = force tolerance
  Energy initial, next-to-last, final =
  Force two-norm initial, final = 4.5956427e+09 0
  Force max component initial, final = 2.6670756e+09 0
  Final line search alpha, max atom move = 0.0082475741 0
  Iterations, force evaluations = 16 46

thermo_style custom step temp ke pe etotal
thermo 500
timestep 0.001
dump    id all custom 5000 out_lan_1709053072.lammpstrj id type radius mass x y z
run 100000
Generated 0 of 0 mixed pair_coeff terms from geometric mixing rule
Step          Temp          KinEng         PotEng         TotEng
16   49.656342      73.450006      0              73.450006
Averages over the last 101 of 202 rows, steps 50500 to 100016:
Temp KinEng PotEng TotEng
1.02633 1.51811 0.0151554 1.53327
Loop time of 0.510886 on 1 procs for 100000 steps with 72 atoms

write_data data.1709053072 nocoeff nofix
System init for write_data ...
Generated 0 of 0 mixed pair_coeff terms from geometric mixing rule
