LAMMPS (21 Nov 2023)
###variable outfile string L15.17
###variable L equal 15.17

units lj

newton off
atom_style      sphere
boundary        p p p
comm_modify     mode single vel yes

region      boxid block 0.0     $L      0.0       $L      0.0       $L
region      boxid block 0.0     6.092947785379555      0.0       $L      0.0       $L
region      boxid block 0.0     6.092947785379555      0.0       6.092947785379555      0.0       $L
region      boxid block 0.0     6.092947785379555      0.0       6.092947785379555      0.0       6.092947785379555
#create_box  1 boxid
include create_box.in
create_box 1 boxid
Created orthogonal box = (0 0 0) to (6.0929478 6.0929478 6.0929478)

######
include create_np.in
create_atoms 1 random 108 5279 boxid
Created 108 atoms
velocity    all create 1.0 87287 dist gaussian

#####
include particles.in
set type 1 diameter 1.0
Setting atom values ...
  108 settings made for diameter
set type 1 mass 26.0
Setting atom values ...
  108 settings made for mass

###
fix 1 all langevin 1.0 1.0 0.1 12345
fix 2 all nve/sphere

###
pair_style lj/cut 1.
include pots_lj_lan.in
pair_coeff 1 1 10.0 1.0 1.122462048309373
pair_modify shift yes

minimize          1.0e-4 1.0e-6 1000 1000
Generated 0 of 0 mixed pair_coeff terms from geometric mixing rule
Step          Temp          E_pair         E_mol          TotEng         Press
0   49.656342      14282677       0              14282751       27280814
Loop time of 0.00135722 on 1 procs for 28 steps with 108 atoms

Minimization stats:
  Stopping criterion = quadratic factors are zero
  Energy initial, next-to-last, final =
  Force two-norm initial, final = 1.1136383e+11 0.08645171
  Force max component initial, final = 4.9046754e+10 0.043653499
  Final line search alpha, max atom move = 0.125 0.0054566874
  Iterations, force evaluations = 28 86

thermo_style custom step temp ke pe etotal
thermo 500
timestep 0.001
dump    id all custom 5000 out_lan_1708804043.lammpstrj id type radius mass x y z
run 100000
Generated 0 of 0 mixed pair_coeff terms from geometric mixing rule
Step          Temp          KinEng         PotEng         TotEng
28   49.656342      73.794842      3.0236361e-08  73.794842
Averages over the last 101 of 202 rows, steps 50500 to 100028:
Temp KinEng PotEng TotEng
0.995402 1.47928 0.175157 1.65444
Loop time of 0.969703 on 1 procs for 100000 steps with 108 atoms

write_data data.1708804043 nocoeff nofix
System init for write_data ...
Generated 0 of 0 mixed pair_coeff terms from geometric mixing rule
