LAMMPS (3 Mar 2020)
###variable outfile string L15.17
###variable L equal 15.17

units lj

newton off
atom_style      sphere
boundary        p p p
comm_modify     mode single vel yes

region      boxid block 0.0     $L      0.0       $L      0.0       $L
region      boxid block 0.0     5.21      0.0       $L      0.0       $L
region      boxid block 0.0     5.21      0.0       5.21      0.0       $L
region      boxid block 0.0     5.21      0.0       5.21      0.0       5.21
#create_box  1 boxid
include create_box.in
create_box 1 boxid
Created orthogonal box = (0 0 0) to (5.21 5.21 5.21)

######
include create_np.in
create_atoms 1 random 54 1722 boxid
Created 54 atoms
velocity    all create 1.0 87287 dist gaussian

#####
include particles.in
set type 1 diameter 1.0
  54 settings made for diameter
set type 1 mass 26.0
  54 settings made for mass

###
fix 1 all langevin 1.0 1.0 0.1 12345
fix 2 all nve/sphere

###
pair_style lj/cut 1.
include pots_lj_lan.in
pair_coeff 1 1 10.0 1.0 1.122462048309373
pair_modify shift yes

minimize          1.0e-4 1.0e-6 1000 1000
  update every 1 steps, delay 0 steps, check yes
Step Temp E_pair E_mol TotEng Press
0    49.656342 2.0129574e+08            0 2.0129582e+08 3.0746337e+08
Loop time of 0.00301025 on 1 procs for 29 steps with 54 atoms

Minimization stats:
  Stopping criterion = quadratic factors are zero
  Energy initial, next-to-last, final =
  Force two-norm initial, final = 8.90318e+11 0.000241753
  Force max component initial, final = 5.88576e+11 0.00013817
  Final line search alpha, max atom move = 1 0.00013817
  Iterations, force evaluations = 29 95

thermo_style custom step temp ke pe etotal
thermo 500
timestep 0.001
dump    id all custom 5000 out_lan_1676480497.lammpstrj id type radius mass x y z
run 100000
Step Temp KinEng PotEng TotEng
29    49.656342    73.105171 4.7346489e-13    73.105171
Averages over the last 101 of 202 rows, steps 50500 to 100029:
Temp KinEng PotEng TotEng
1.01418 1.4931 0.117709 1.61081
Loop time of 0.577527 on 1 procs for 100000 steps with 54 atoms

write_data data.1676480497 nocoeff nofix
