LAMMPS (21 Nov 2023)
###variable outfile string L15.17
###variable L equal 15.17

units lj

newton off
atom_style      sphere
boundary        p p p
comm_modify     mode single vel yes

region      boxid block 0.0     $L      0.0       $L      0.0       $L
region      boxid block 0.0     4.757962609394053      0.0       $L      0.0       $L
region      boxid block 0.0     4.757962609394053      0.0       4.757962609394053      0.0       $L
region      boxid block 0.0     4.757962609394053      0.0       4.757962609394053      0.0       4.757962609394053
#create_box  1 boxid
include create_box.in
create_box 1 boxid
Created orthogonal box = (0 0 0) to (4.7579626 4.7579626 4.7579626)

######
include create_np.in
create_atoms 1 random 72 9735 boxid
Created 72 atoms
velocity    all create 1.0 87287 dist gaussian

#####
include particles.in
set type 1 diameter 1.0
Setting atom values ...
  72 settings made for diameter
set type 1 mass 26.0
Setting atom values ...
  72 settings made for mass

###
fix 1 all langevin 1.0 1.0 0.1 12345
fix 2 all nve/sphere

###
pair_style lj/cut 1.
include pots_lj_lan.in
pair_coeff 1 1 10.0 1.0 1.122462048309373
pair_modify shift yes

minimize          1.0e-4 1.0e-6 1000 1000
Generated 0 of 0 mixed pair_coeff terms from geometric mixing rule
Step          Temp          E_pair         E_mol          TotEng         Press
0   49.656342      5022784.5      0              5022858        13435499
Loop time of 0.00239622 on 1 procs for 46 steps with 72 atoms

Minimization stats:
  Stopping criterion = quadratic factors are zero
  Energy initial, next-to-last, final =
  Force two-norm initial, final = 1.4833034e+10 0.088137878
  Force max component initial, final = 9.6725813e+09 0.051874079
  Final line search alpha, max atom move = 0.0078125 0.00040526625
  Iterations, force evaluations = 46 193

thermo_style custom step temp ke pe etotal
thermo 500
timestep 0.001
dump    id all custom 5000 out_lan_1709054421.lammpstrj id type radius mass x y z
run 100000
Generated 0 of 0 mixed pair_coeff terms from geometric mixing rule
Step          Temp          KinEng         PotEng         TotEng
46   49.656342      73.450006      4.7137927e-08  73.450006
Averages over the last 101 of 202 rows, steps 50500 to 100046:
Temp KinEng PotEng TotEng
1.01765 1.50527 0.403136 1.90841
Loop time of 0.793232 on 1 procs for 100000 steps with 72 atoms

write_data data.1709054421 nocoeff nofix
System init for write_data ...
Generated 0 of 0 mixed pair_coeff terms from geometric mixing rule
