LAMMPS (21 Nov 2023)
###variable outfile string L15.17
###variable L equal 15.17

units lj

newton off
atom_style      sphere
boundary        p p p
comm_modify     mode single vel yes

region      boxid block 0.0     $L      0.0       $L      0.0       $L
region      boxid block 0.0     5.209397078678045      0.0       $L      0.0       $L
region      boxid block 0.0     5.209397078678045      0.0       5.209397078678045      0.0       $L
region      boxid block 0.0     5.209397078678045      0.0       5.209397078678045      0.0       5.209397078678045
#create_box  1 boxid
include create_box.in
create_box 1 boxid
Created orthogonal box = (0 0 0) to (5.2093971 5.2093971 5.2093971)

######
include create_np.in
create_atoms 1 random 108 7104 boxid
Created 108 atoms
velocity    all create 1.0 87287 dist gaussian

#####
include particles.in
set type 1 diameter 1.0
Setting atom values ...
  108 settings made for diameter
set type 1 mass 26.0
Setting atom values ...
  108 settings made for mass

###
fix 1 all langevin 1.0 1.0 0.1 12345
fix 2 all nve/sphere

###
pair_style lj/cut 1.
include pots_lj_lan.in
pair_coeff 1 1 10.0 1.0 1.122462048309373
pair_modify shift yes

minimize          1.0e-4 1.0e-6 1000 1000
Generated 0 of 0 mixed pair_coeff terms from geometric mixing rule
Step          Temp          E_pair         E_mol          TotEng         Press
0   49.656342      7.3871775e+09  0              7.3871776e+09  2.2573659e+10
Loop time of 0.0103881 on 1 procs for 119 steps with 108 atoms

Minimization stats:
  Stopping criterion = linesearch alpha is zero
  Energy initial, next-to-last, final =
  Force two-norm initial, final = 9.0839836e+13 0.0061681891
  Force max component initial, final = 4.6825612e+13 0.0033029958
  Final line search alpha, max atom move = 0.03125 0.00010321862
  Iterations, force evaluations = 119 756

thermo_style custom step temp ke pe etotal
thermo 500
timestep 0.001
dump    id all custom 5000 out_lan_1708822984.lammpstrj id type radius mass x y z
run 100000
Generated 0 of 0 mixed pair_coeff terms from geometric mixing rule
Step          Temp          KinEng         PotEng         TotEng
119   49.656342      73.794842      1.5410233e-10  73.794842
Averages over the last 101 of 202 rows, steps 50500 to 100119:
Temp KinEng PotEng TotEng
1.01186 1.50373 0.632233 2.13597
Loop time of 1.0261 on 1 procs for 100000 steps with 108 atoms

write_data data.1708822984 nocoeff nofix
System init for write_data ...
Generated 0 of 0 mixed pair_coeff terms from geometric mixing rule
