LAMMPS (21 Nov 2023)
###variable outfile string L15.17
###variable L equal 15.17

units lj

newton off
atom_style      sphere
boundary        p p p
comm_modify     mode single vel yes

region      boxid block 0.0     $L      0.0       $L      0.0       $L
region      boxid block 0.0     5.209397078678045      0.0       $L      0.0       $L
region      boxid block 0.0     5.209397078678045      0.0       5.209397078678045      0.0       $L
region      boxid block 0.0     5.209397078678045      0.0       5.209397078678045      0.0       5.209397078678045
#create_box  1 boxid
include create_box.in
create_box 1 boxid
Created orthogonal box = (0 0 0) to (5.2093971 5.2093971 5.2093971)

######
include create_np.in
create_atoms 1 random 54 4490 boxid
Created 54 atoms
velocity    all create 1.0 87287 dist gaussian

#####
include particles.in
set type 1 diameter 1.0
Setting atom values ...
  54 settings made for diameter
set type 1 mass 26.0
Setting atom values ...
  54 settings made for mass

###
fix 1 all langevin 1.0 1.0 0.1 12345
fix 2 all nve/sphere

###
pair_style lj/cut 1.
include pots_lj_lan.in
pair_coeff 1 1 10.0 1.0 1.122462048309373
pair_modify shift yes

minimize          1.0e-4 1.0e-6 1000 1000
Generated 0 of 0 mixed pair_coeff terms from geometric mixing rule
Step          Temp          E_pair         E_mol          TotEng         Press
0   49.656342      921097.7       0              921170.81      1408658.8
Loop time of 0.000543078 on 1 procs for 25 steps with 54 atoms

Minimization stats:
  Stopping criterion = quadratic factors are zero
  Energy initial, next-to-last, final =
  Force two-norm initial, final = 1.5416931e+09 0.4495044
  Force max component initial, final = 8.635373e+08 0.28089484
  Final line search alpha, max atom move = 0.02225032 0.00625
  Iterations, force evaluations = 25 90

thermo_style custom step temp ke pe etotal
thermo 500
timestep 0.001
dump    id all custom 5000 out_lan_1708795374.lammpstrj id type radius mass x y z
run 100000
Generated 0 of 0 mixed pair_coeff terms from geometric mixing rule
Step          Temp          KinEng         PotEng         TotEng
25   49.656342      73.105171      1.6280266e-06  73.105172
Averages over the last 101 of 202 rows, steps 50500 to 100025:
Temp KinEng PotEng TotEng
1.01407 1.49293 0.112312 1.60524
Loop time of 0.460641 on 1 procs for 100000 steps with 54 atoms

write_data data.1708795374 nocoeff nofix
System init for write_data ...
Generated 0 of 0 mixed pair_coeff terms from geometric mixing rule
