LAMMPS (21 Nov 2023)
###variable outfile string L15.17
###variable L equal 15.17

units lj

newton off
atom_style      sphere
boundary        p p p
comm_modify     mode single vel yes

region      boxid block 0.0     $L      0.0       $L      0.0       $L
region      boxid block 0.0     7.223988394141365      0.0       $L      0.0       $L
region      boxid block 0.0     7.223988394141365      0.0       7.223988394141365      0.0       $L
region      boxid block 0.0     7.223988394141365      0.0       7.223988394141365      0.0       7.223988394141365
#create_box  1 boxid
include create_box.in
create_box 1 boxid
Created orthogonal box = (0 0 0) to (7.2239884 7.2239884 7.2239884)

######
include create_np.in
create_atoms 1 random 108 7580 boxid
Created 108 atoms
velocity    all create 1.0 87287 dist gaussian

#####
include particles.in
set type 1 diameter 1.0
Setting atom values ...
  108 settings made for diameter
set type 1 mass 26.0
Setting atom values ...
  108 settings made for mass

###
fix 1 all langevin 1.0 1.0 0.1 12345
fix 2 all nve/sphere

###
pair_style lj/cut 1.
include pots_lj_lan.in
pair_coeff 1 1 10.0 1.0 1.122462048309373
pair_modify shift yes

minimize          1.0e-4 1.0e-6 1000 1000
Generated 0 of 0 mixed pair_coeff terms from geometric mixing rule
Step          Temp          E_pair         E_mol          TotEng         Press
0   49.656342      2.2244944e+15  0              2.2244944e+15  2.5490829e+15
Loop time of 0.00129995 on 1 procs for 36 steps with 108 atoms

Minimization stats:
  Stopping criterion = quadratic factors are zero
  Energy initial, next-to-last, final =
  Force two-norm initial, final = 8.418491e+19 0.63617541
  Force max component initial, final = 5.6530199e+19 0.39624968
  Final line search alpha, max atom move = 0.007964249 0.0031558312
  Iterations, force evaluations = 36 136

thermo_style custom step temp ke pe etotal
thermo 500
timestep 0.001
dump    id all custom 5000 out_lan_1708803569.lammpstrj id type radius mass x y z
run 100000
Generated 0 of 0 mixed pair_coeff terms from geometric mixing rule
Step          Temp          KinEng         PotEng         TotEng
36   49.656342      73.794842      1.6234783e-06  73.794844
Averages over the last 101 of 202 rows, steps 50500 to 100036:
Temp KinEng PotEng TotEng
1.00118 1.48786 0.0669528 1.55481
Loop time of 0.760021 on 1 procs for 100000 steps with 108 atoms

write_data data.1708803569 nocoeff nofix
System init for write_data ...
Generated 0 of 0 mixed pair_coeff terms from geometric mixing rule
