LAMMPS (21 Nov 2023)
###variable outfile string L15.17
###variable L equal 15.17

units lj

newton off
atom_style      sphere
boundary        p p p
comm_modify     mode single vel yes

region      boxid block 0.0     $L      0.0       $L      0.0       $L
region      boxid block 0.0     7.224      0.0       $L      0.0       $L
region      boxid block 0.0     7.224      0.0       7.224      0.0       $L
region      boxid block 0.0     7.224      0.0       7.224      0.0       7.224
#create_box  1 boxid
include create_box.in
create_box 1 boxid
Created orthogonal box = (0 0 0) to (7.224 7.224 7.224)

######
include create_np.in
create_atoms 1 random 108 4603 boxid
Created 108 atoms
velocity    all create 1.0 87287 dist gaussian

#####
include particles.in
set type 1 diameter 1.0
Setting atom values ...
  108 settings made for diameter
set type 1 mass 26.0
Setting atom values ...
  108 settings made for mass

###
fix 1 all langevin 1.0 1.0 0.1 12345
fix 2 all nve/sphere

###
pair_style lj/cut 1.
include pots_lj_lan.in
pair_coeff 1 1 10.0 1.0 1.122462048309373
pair_modify shift yes

minimize          1.0e-4 1.0e-6 1000 1000
Generated 0 of 0 mixed pair_coeff terms from geometric mixing rule
Step          Temp          E_pair         E_mol          TotEng         Press
0   49.656342      1.4177362e+09  0              1.4177363e+09  1.6246149e+09
Loop time of 0.00109845 on 1 procs for 26 steps with 108 atoms

Minimization stats:
  Stopping criterion = quadratic factors are zero
  Energy initial, next-to-last, final =
  Force two-norm initial, final = 1.5627424e+13 1.4871499
  Force max component initial, final = 6.8164721e+12 0.79071995
  Final line search alpha, max atom move = 0.0019954602 0.0015778502
  Iterations, force evaluations = 26 86

thermo_style custom step temp ke pe etotal
thermo 500
timestep 0.001
dump    id all custom 5000 out_lan_1708718292.lammpstrj id type radius mass x y z
run 100000
Generated 0 of 0 mixed pair_coeff terms from geometric mixing rule
Step          Temp          KinEng         PotEng         TotEng
26   49.656342      73.794842      8.7608306e-06  73.794851
Averages over the last 101 of 202 rows, steps 50500 to 100026:
Temp KinEng PotEng TotEng
0.994963 1.47863 0.0694954 1.54812
Loop time of 0.779247 on 1 procs for 100000 steps with 108 atoms

write_data data.1708718292 nocoeff nofix
System init for write_data ...
Generated 0 of 0 mixed pair_coeff terms from geometric mixing rule
