LAMMPS (21 Nov 2023)
###variable outfile string L15.17
###variable L equal 15.17

units lj

newton off
atom_style      sphere
boundary        p p p
comm_modify     mode single vel yes

region      boxid block 0.0     $L      0.0       $L      0.0       $L
region      boxid block 0.0     8.2694      0.0       $L      0.0       $L
region      boxid block 0.0     8.2694      0.0       8.2694      0.0       $L
region      boxid block 0.0     8.2694      0.0       8.2694      0.0       8.2694
#create_box  1 boxid
include create_box.in
create_box 1 boxid
Created orthogonal box = (0 0 0) to (8.2694 8.2694 8.2694)

######
include create_np.in
create_atoms 1 random 108 8772 boxid
Created 108 atoms
velocity    all create 1.0 87287 dist gaussian

#####
include particles.in
set type 1 diameter 1.0
Setting atom values ...
  108 settings made for diameter
set type 1 mass 26.0
Setting atom values ...
  108 settings made for mass

###
fix 1 all langevin 1.0 1.0 0.1 12345
fix 2 all nve/sphere

###
pair_style lj/cut 1.
include pots_lj_lan.in
pair_coeff 1 1 10.0 1.0 1.122462048309373
pair_modify shift yes

minimize          1.0e-4 1.0e-6 1000 1000
Generated 0 of 0 mixed pair_coeff terms from geometric mixing rule
Step          Temp          E_pair         E_mol          TotEng         Press
0   49.656342      6194463.1      0              6194536.9      4732924.7
Loop time of 0.000707647 on 1 procs for 23 steps with 108 atoms

Minimization stats:
  Stopping criterion = quadratic factors are zero
  Energy initial, next-to-last, final =
  Force two-norm initial, final = 4.4903071e+10 1.8089448
  Force max component initial, final = 2.0413467e+10 0.95956498
  Final line search alpha, max atom move = 0.012351171 0.011851752
  Iterations, force evaluations = 23 69

thermo_style custom step temp ke pe etotal
thermo 500
timestep 0.001
dump    id all custom 5000 out_lan_1708717881.lammpstrj id type radius mass x y z
run 100000
Generated 0 of 0 mixed pair_coeff terms from geometric mixing rule
Step          Temp          KinEng         PotEng         TotEng
23   49.656342      73.794842      1.3003785e-05  73.794855
Averages over the last 101 of 202 rows, steps 50500 to 100023:
Temp KinEng PotEng TotEng
0.998289 1.48357 0.0322833 1.51585
Loop time of 0.806774 on 1 procs for 100000 steps with 108 atoms

write_data data.1708717881 nocoeff nofix
System init for write_data ...
Generated 0 of 0 mixed pair_coeff terms from geometric mixing rule
