LAMMPS (21 Nov 2023)
###variable outfile string L15.17
###variable L equal 15.17

units lj

newton off
atom_style      sphere
boundary        p p p
comm_modify     mode single vel yes

region      boxid block 0.0     $L      0.0       $L      0.0       $L
region      boxid block 0.0     4.550827520987483      0.0       $L      0.0       $L
region      boxid block 0.0     4.550827520987483      0.0       4.550827520987483      0.0       $L
region      boxid block 0.0     4.550827520987483      0.0       4.550827520987483      0.0       4.550827520987483
#create_box  1 boxid
include create_box.in
create_box 1 boxid
Created orthogonal box = (0 0 0) to (4.5508275 4.5508275 4.5508275)

######
include create_np.in
create_atoms 1 random 54 3697 boxid
Created 54 atoms
velocity    all create 1.0 87287 dist gaussian

#####
include particles.in
set type 1 diameter 1.0
Setting atom values ...
  54 settings made for diameter
set type 1 mass 26.0
Setting atom values ...
  54 settings made for mass

###
fix 1 all langevin 1.0 1.0 0.1 12345
fix 2 all nve/sphere

###
pair_style lj/cut 1.
include pots_lj_lan.in
pair_coeff 1 1 10.0 1.0 1.122462048309373
pair_modify shift yes

minimize          1.0e-4 1.0e-6 1000 1000
Generated 0 of 0 mixed pair_coeff terms from geometric mixing rule
Step          Temp          E_pair         E_mol          TotEng         Press
0   49.656342      98192455       0              98192528       2.2506132e+08
Loop time of 0.00138416 on 1 procs for 40 steps with 54 atoms

Minimization stats:
  Stopping criterion = quadratic factors are zero
  Energy initial, next-to-last, final =
  Force two-norm initial, final = 2.2514346e+11 0.057064844
  Force max component initial, final = 1.1336786e+11 0.039219717
  Final line search alpha, max atom move = 0.015625 0.00061280807
  Iterations, force evaluations = 40 161

thermo_style custom step temp ke pe etotal
thermo 500
timestep 0.001
dump    id all custom 5000 out_lan_1708801343.lammpstrj id type radius mass x y z
run 100000
Generated 0 of 0 mixed pair_coeff terms from geometric mixing rule
Step          Temp          KinEng         PotEng         TotEng
40   49.656342      73.105171      2.635798e-08   73.105171
Averages over the last 101 of 202 rows, steps 50500 to 100040:
Temp KinEng PotEng TotEng
1.02438 1.50811 0.273602 1.78171
Loop time of 0.573808 on 1 procs for 100000 steps with 54 atoms

write_data data.1708801343 nocoeff nofix
System init for write_data ...
Generated 0 of 0 mixed pair_coeff terms from geometric mixing rule
