LAMMPS (21 Nov 2023)
###variable outfile string L15.17
###variable L equal 15.17

units lj

newton off
atom_style      sphere
boundary        p p p
comm_modify     mode single vel yes

region      boxid block 0.0     $L      0.0       $L      0.0       $L
region      boxid block 0.0     6.563429036687327      0.0       $L      0.0       $L
region      boxid block 0.0     6.563429036687327      0.0       6.563429036687327      0.0       $L
region      boxid block 0.0     6.563429036687327      0.0       6.563429036687327      0.0       6.563429036687327
#create_box  1 boxid
include create_box.in
create_box 1 boxid
Created orthogonal box = (0 0 0) to (6.563429 6.563429 6.563429)

######
include create_np.in
create_atoms 1 random 108 9426 boxid
Created 108 atoms
velocity    all create 1.0 87287 dist gaussian

#####
include particles.in
set type 1 diameter 1.0
Setting atom values ...
  108 settings made for diameter
set type 1 mass 26.0
Setting atom values ...
  108 settings made for mass

###
fix 1 all langevin 1.0 1.0 0.1 12345
fix 2 all nve/sphere

###
pair_style lj/cut 1.
include pots_lj_lan.in
pair_coeff 1 1 10.0 1.0 1.122462048309373
pair_modify shift yes

minimize          1.0e-4 1.0e-6 1000 1000
Generated 0 of 0 mixed pair_coeff terms from geometric mixing rule
Step          Temp          E_pair         E_mol          TotEng         Press
0   49.656342      2.918893e+09   0              2.9188931e+09  4.4597674e+09
Loop time of 0.00145299 on 1 procs for 33 steps with 108 atoms

Minimization stats:
  Stopping criterion = quadratic factors are zero
  Energy initial, next-to-last, final =
  Force two-norm initial, final = 3.5676644e+13 0.0029251203
  Force max component initial, final = 1.9738482e+13 0.0015336058
  Final line search alpha, max atom move = 1 0.0015336058
  Iterations, force evaluations = 33 112

thermo_style custom step temp ke pe etotal
thermo 500
timestep 0.001
dump    id all custom 5000 out_lan_1708795656.lammpstrj id type radius mass x y z
run 100000
Generated 0 of 0 mixed pair_coeff terms from geometric mixing rule
Step          Temp          KinEng         PotEng         TotEng
33   49.656342      73.794842      3.4657314e-11  73.794842
Averages over the last 101 of 202 rows, steps 50500 to 100033:
Temp KinEng PotEng TotEng
0.994646 1.47815 0.099121 1.57728
Loop time of 0.844352 on 1 procs for 100000 steps with 108 atoms

write_data data.1708795656 nocoeff nofix
System init for write_data ...
Generated 0 of 0 mixed pair_coeff terms from geometric mixing rule
