LAMMPS (21 Nov 2023)
###variable outfile string L15.17
###variable L equal 15.17

units lj

newton off
atom_style      sphere
boundary        p p p
comm_modify     mode single vel yes

region      boxid block 0.0     $L      0.0       $L      0.0       $L
region      boxid block 0.0     5.008833798856052      0.0       $L      0.0       $L
region      boxid block 0.0     5.008833798856052      0.0       5.008833798856052      0.0       $L
region      boxid block 0.0     5.008833798856052      0.0       5.008833798856052      0.0       5.008833798856052
#create_box  1 boxid
include create_box.in
create_box 1 boxid
Created orthogonal box = (0 0 0) to (5.0088338 5.0088338 5.0088338)

######
include create_np.in
create_atoms 1 random 72 7053 boxid
Created 72 atoms
velocity    all create 1.0 87287 dist gaussian

#####
include particles.in
set type 1 diameter 1.0
Setting atom values ...
  72 settings made for diameter
set type 1 mass 26.0
Setting atom values ...
  72 settings made for mass

###
fix 1 all langevin 1.0 1.0 0.1 12345
fix 2 all nve/sphere

###
pair_style lj/cut 1.
include pots_lj_lan.in
pair_coeff 1 1 10.0 1.0 1.122462048309373
pair_modify shift yes

minimize          1.0e-4 1.0e-6 1000 1000
Generated 0 of 0 mixed pair_coeff terms from geometric mixing rule
Step          Temp          E_pair         E_mol          TotEng         Press
0   49.656342      1.6338911e+12  0              1.6338911e+12  3.7446038e+12
Loop time of 0.00145418 on 1 procs for 42 steps with 72 atoms

Minimization stats:
  Stopping criterion = quadratic factors are zero
  Energy initial, next-to-last, final =
  Force two-norm initial, final = 2.180124e+16 0.0030885208
  Force max component initial, final = 1.296656e+16 0.001897222
  Final line search alpha, max atom move = 0.5 0.00094861101
  Iterations, force evaluations = 42 150

thermo_style custom step temp ke pe etotal
thermo 500
timestep 0.001
dump    id all custom 5000 out_lan_1709054184.lammpstrj id type radius mass x y z
run 100000
Generated 0 of 0 mixed pair_coeff terms from geometric mixing rule
Step          Temp          KinEng         PotEng         TotEng
42   49.656342      73.450006      5.795606e-11   73.450006
Averages over the last 101 of 202 rows, steps 50500 to 100042:
Temp KinEng PotEng TotEng
1.01248 1.49762 0.262542 1.76017
Loop time of 0.674543 on 1 procs for 100000 steps with 72 atoms

write_data data.1709054184 nocoeff nofix
System init for write_data ...
Generated 0 of 0 mixed pair_coeff terms from geometric mixing rule
