LAMMPS (21 Nov 2023)
###variable outfile string L15.17
###variable L equal 15.17

units lj

newton off
atom_style      sphere
boundary        p p p
comm_modify     mode single vel yes

region      boxid block 0.0     $L      0.0       $L      0.0       $L
region      boxid block 0.0     5.733683388133033      0.0       $L      0.0       $L
region      boxid block 0.0     5.733683388133033      0.0       5.733683388133033      0.0       $L
region      boxid block 0.0     5.733683388133033      0.0       5.733683388133033      0.0       5.733683388133033
#create_box  1 boxid
include create_box.in
create_box 1 boxid
Created orthogonal box = (0 0 0) to (5.7336834 5.7336834 5.7336834)

######
include create_np.in
create_atoms 1 random 72 5728 boxid
Created 72 atoms
velocity    all create 1.0 87287 dist gaussian

#####
include particles.in
set type 1 diameter 1.0
Setting atom values ...
  72 settings made for diameter
set type 1 mass 26.0
Setting atom values ...
  72 settings made for mass

###
fix 1 all langevin 1.0 1.0 0.1 12345
fix 2 all nve/sphere

###
pair_style lj/cut 1.
include pots_lj_lan.in
pair_coeff 1 1 10.0 1.0 1.122462048309373
pair_modify shift yes

minimize          1.0e-4 1.0e-6 1000 1000
Generated 0 of 0 mixed pair_coeff terms from geometric mixing rule
Step          Temp          E_pair         E_mol          TotEng         Press
0   49.656342      19212.658      0              19286.108      29579.886
Loop time of 0.000617984 on 1 procs for 19 steps with 72 atoms

Minimization stats:
  Stopping criterion = force tolerance
  Energy initial, next-to-last, final =
  Force two-norm initial, final = 43000964 0
  Force max component initial, final = 26043430 0
  Final line search alpha, max atom move = 0.0054631216 0
  Iterations, force evaluations = 19 59

thermo_style custom step temp ke pe etotal
thermo 500
timestep 0.001
dump    id all custom 5000 out_lan_1708805434.lammpstrj id type radius mass x y z
run 100000
Generated 0 of 0 mixed pair_coeff terms from geometric mixing rule
Step          Temp          KinEng         PotEng         TotEng
19   49.656342      73.450006      0              73.450006
Averages over the last 101 of 202 rows, steps 50500 to 100019:
Temp KinEng PotEng TotEng
1.02671 1.51868 0.108753 1.62743
Loop time of 0.675282 on 1 procs for 100000 steps with 72 atoms

write_data data.1708805434 nocoeff nofix
System init for write_data ...
Generated 0 of 0 mixed pair_coeff terms from geometric mixing rule
